Version 4
SHEET 1 880 680
WIRE -288 -576 -496 -576
WIRE 80 -576 -288 -576
WIRE 240 -576 80 -576
WIRE 704 -576 272 -576
WIRE 80 -464 80 -576
WIRE 400 -464 80 -464
WIRE -288 -448 -288 -576
WIRE 608 -368 96 -368
WIRE 608 -320 608 -368
WIRE -288 -304 -288 -368
WIRE 384 -304 -288 -304
WIRE -800 -288 -1296 -288
WIRE -1440 -272 -1568 -272
WIRE -1312 -272 -1440 -272
WIRE -992 -272 -1312 -272
WIRE -976 -256 -1360 -256
WIRE -288 -256 -288 -304
WIRE -1440 -240 -1440 -272
WIRE 128 -240 48 -240
WIRE 400 -240 400 -464
WIRE 400 -240 352 -240
WIRE -800 -224 -800 -288
WIRE -1248 -208 -1264 -208
WIRE -992 -208 -992 -272
WIRE -992 -208 -1024 -208
WIRE 128 -176 -32 -176
WIRE 384 -176 384 -304
WIRE 384 -176 352 -176
WIRE 608 -176 608 -256
WIRE -1440 -144 -1440 -160
WIRE -1360 -144 -1360 -256
WIRE -1360 -144 -1440 -144
WIRE -1248 -144 -1328 -144
WIRE -976 -144 -976 -256
WIRE -976 -144 -1024 -144
WIRE -288 -128 -288 -176
WIRE -32 -128 -32 -176
WIRE -32 -128 -288 -128
WIRE -1568 -112 -1568 -272
WIRE -1440 -112 -1440 -144
WIRE 96 -112 96 -368
WIRE 128 -112 96 -112
WIRE 384 -112 352 -112
WIRE -800 -96 -800 -144
WIRE -704 -96 -800 -96
WIRE -496 -96 -496 -576
WIRE -496 -96 -512 -96
WIRE -1296 -80 -1296 -288
WIRE -1248 -80 -1296 -80
WIRE -944 -80 -1024 -80
WIRE 80 -48 80 -464
WIRE 128 -48 80 -48
WIRE 400 -48 352 -48
WIRE -1440 -16 -1440 -32
WIRE -1328 -16 -1328 -144
WIRE -1328 -16 -1440 -16
WIRE -1312 -16 -1312 -272
WIRE -1248 -16 -1312 -16
WIRE -864 -16 -1024 -16
WIRE -1440 0 -1440 -16
WIRE -1328 0 -1440 0
WIRE -704 0 -800 0
WIRE -288 0 -288 -128
WIRE -288 0 -512 0
WIRE 384 0 384 -112
WIRE 384 0 -288 0
WIRE -1440 16 -1440 0
WIRE -864 16 -864 -16
WIRE 400 64 400 -48
WIRE -1328 80 -1328 0
WIRE -944 80 -944 -80
WIRE -944 80 -1328 80
WIRE -288 80 -288 0
WIRE -1568 128 -1568 -80
WIRE -1440 128 -1440 80
WIRE -1440 128 -1568 128
WIRE -1264 128 -1264 -208
WIRE -1264 128 -1440 128
WIRE -1120 128 -1264 128
WIRE -864 128 -864 80
WIRE -864 128 -1120 128
WIRE -800 128 -800 0
WIRE -800 128 -864 128
WIRE -1120 176 -1120 128
WIRE -288 224 -288 144
WIRE 48 224 48 -240
WIRE 48 224 -288 224
WIRE 400 224 400 128
WIRE 400 224 48 224
WIRE 608 224 608 -96
WIRE 608 224 400 224
WIRE 704 224 704 -576
WIRE 704 224 608 224
WIRE -288 256 -288 224
FLAG -1120 176 0
FLAG -288 256 0
SYMBOL MiniSyms4\\voltage- -1568 -96 R0
WINDOW 123 0 0 Left 2
WINDOW 39 0 0 Left 2
SYMATTR InstName V1
SYMATTR Value 12
SYMBOL res -1456 -256 R0
SYMATTR InstName R1
SYMATTR Value 10k
SYMBOL res -1456 -128 R0
SYMATTR InstName R2
SYMATTR Value 50k
SYMBOL polcap -1456 16 R0
WINDOW 3 24 56 Left 2
SYMATTR Value 0.047µ
SYMATTR InstName C1
SYMATTR Description Capacitor
SYMATTR Type cap
SYMATTR SpiceLine V=16 Irms=35m Rser=2.8 Lser=0
SYMBOL polcap -880 16 R0
WINDOW 3 24 56 Left 2
SYMATTR Value 0.01µ
SYMATTR InstName C2
SYMATTR Description Capacitor
SYMATTR Type cap
SYMATTR SpiceLine V=16 Irms=35m Rser=2.8 Lser=0
SYMBOL Misc\\NE555 -1136 -112 R0
SYMATTR InstName U1
SYMBOL Misc\\NE555 240 -144 R0
SYMATTR InstName U2
SYMBOL polcap 384 64 R0
WINDOW 3 24 56 Left 2
SYMATTR Value 0.01µ
SYMATTR InstName C3
SYMATTR Description Capacitor
SYMATTR Type cap
SYMATTR SpiceLine V=16 Irms=35m Rser=2.8 Lser=0 mfg="Nichicon" pn="UPR1C100MAH" type="Al electrolytic"
SYMBOL MiniSyms4\\voltage- 256 -576 R270
WINDOW 0 10 0 VTop 2
WINDOW 3 -10 0 VBottom 2
WINDOW 123 0 0 Left 2
WINDOW 39 0 0 Left 2
SYMATTR InstName V2
SYMATTR Value 12
SYMBOL res -304 -464 R0
SYMATTR InstName R3
SYMATTR Value 10k
SYMBOL res -304 -272 R0
SYMATTR InstName R4
SYMATTR Value 50k
SYMBOL polcap -304 80 R0
WINDOW 3 24 56 Left 2
SYMATTR Value 0.05µ
SYMATTR InstName C4
SYMATTR Description Capacitor
SYMATTR Type cap
SYMATTR SpiceLine V=16 Irms=35m Rser=2.8 Lser=0
SYMBOL polcap 592 -320 R0
WINDOW 3 24 56 Left 2
SYMATTR Value 100µ
SYMATTR InstName C5
SYMATTR Description Capacitor
SYMATTR Type cap
SYMATTR SpiceLine V=16 Irms=135m Rser=0.8 Lser=0 mfg="Nichicon" pn="UPR1C101MPH" type="Al electrolytic"
SYMBOL res 592 -192 R0
SYMATTR InstName R5
SYMATTR Value 4
SYMBOL res -816 -240 R0
SYMATTR InstName R6
SYMATTR Value 220
SYMBOL OptoElec\\Pc357nt -608 -48 R0
SYMATTR InstName U3
TEXT -1576 280 Left 2 !.tran 100ms
