Version 4
SHEET 1 952 680
WIRE -272 -640 -480 -640
WIRE 96 -640 -272 -640
WIRE 256 -640 96 -640
WIRE 720 -640 288 -640
WIRE 96 -528 96 -640
WIRE 416 -528 96 -528
WIRE -272 -512 -272 -640
WIRE 624 -432 112 -432
WIRE 624 -384 624 -432
WIRE -272 -368 -272 -432
WIRE 400 -368 -272 -368
WIRE -784 -352 -1280 -352
WIRE -1424 -336 -1552 -336
WIRE -1296 -336 -1424 -336
WIRE -976 -336 -1296 -336
WIRE -960 -320 -1344 -320
WIRE -272 -320 -272 -368
WIRE -1424 -304 -1424 -336
WIRE 144 -304 64 -304
WIRE 416 -304 416 -528
WIRE 416 -304 368 -304
WIRE -784 -288 -784 -352
WIRE -1232 -272 -1248 -272
WIRE -976 -272 -976 -336
WIRE -976 -272 -1008 -272
WIRE 144 -240 -16 -240
WIRE 400 -240 400 -368
WIRE 400 -240 368 -240
WIRE -1424 -208 -1424 -224
WIRE -1344 -208 -1344 -320
WIRE -1344 -208 -1424 -208
WIRE -1232 -208 -1312 -208
WIRE -960 -208 -960 -320
WIRE -960 -208 -1008 -208
WIRE -272 -192 -272 -240
WIRE -16 -192 -16 -240
WIRE -16 -192 -272 -192
WIRE -1552 -176 -1552 -336
WIRE -1424 -176 -1424 -208
WIRE 112 -176 112 -432
WIRE 144 -176 112 -176
WIRE 400 -176 368 -176
WIRE -784 -160 -784 -208
WIRE -688 -160 -784 -160
WIRE -480 -160 -480 -640
WIRE -480 -160 -496 -160
WIRE -1280 -144 -1280 -352
WIRE -1232 -144 -1280 -144
WIRE -928 -144 -1008 -144
WIRE 96 -112 96 -528
WIRE 144 -112 96 -112
WIRE 416 -112 368 -112
WIRE -1424 -80 -1424 -96
WIRE -1312 -80 -1312 -208
WIRE -1312 -80 -1424 -80
WIRE -1296 -80 -1296 -336
WIRE -1232 -80 -1296 -80
WIRE -848 -80 -1008 -80
WIRE -1424 -64 -1424 -80
WIRE -1312 -64 -1424 -64
WIRE -688 -64 -784 -64
WIRE -272 -64 -272 -192
WIRE -272 -64 -496 -64
WIRE 400 -64 400 -176
WIRE 400 -64 -272 -64
WIRE -1424 -48 -1424 -64
WIRE -848 -48 -848 -80
WIRE 416 0 416 -112
WIRE -1312 16 -1312 -64
WIRE -928 16 -928 -144
WIRE -928 16 -1312 16
WIRE -272 16 -272 -64
WIRE -1552 64 -1552 -144
WIRE -1424 64 -1424 16
WIRE -1424 64 -1552 64
WIRE -1248 64 -1248 -272
WIRE -1248 64 -1424 64
WIRE -848 64 -848 16
WIRE -848 64 -1248 64
WIRE -784 64 -784 -64
WIRE -784 64 -848 64
WIRE -1248 112 -1248 64
WIRE -272 160 -272 80
WIRE 64 160 64 -304
WIRE 64 160 -272 160
WIRE 416 160 416 64
WIRE 416 160 64 160
WIRE 624 160 624 -320
WIRE 624 160 416 160
WIRE 720 160 720 -640
WIRE 720 160 624 160
WIRE 64 192 64 160
FLAG -1248 112 0
FLAG 64 192 0
SYMBOL MiniSyms4\\voltage- -1552 -160 R0
WINDOW 123 0 0 Left 0
WINDOW 39 0 0 Left 0
SYMATTR InstName V1
SYMATTR Value 12
SYMBOL res -1440 -320 R0
SYMATTR InstName R1
SYMATTR Value 10k
SYMBOL res -1440 -192 R0
SYMATTR InstName R2
SYMATTR Value 50k
SYMBOL polcap -1440 -48 R0
WINDOW 3 24 56 Left 2
SYMATTR Value 0.047µ
SYMATTR InstName C1
SYMATTR Description Capacitor
SYMATTR Type cap
SYMATTR SpiceLine V=16 Irms=35m Rser=2.8 Lser=0
SYMBOL polcap -864 -48 R0
WINDOW 3 24 56 Left 2
SYMATTR Value 0.01µ
SYMATTR InstName C2
SYMATTR Description Capacitor
SYMATTR Type cap
SYMATTR SpiceLine V=16 Irms=35m Rser=2.8 Lser=0
SYMBOL Misc\\NE555 -1120 -176 R0
SYMATTR InstName U1
SYMBOL Misc\\NE555 256 -208 R0
SYMATTR InstName U2
SYMBOL polcap 400 0 R0
WINDOW 3 24 56 Left 2
SYMATTR Value 0.01µ
SYMATTR InstName C4
SYMATTR Description Capacitor
SYMATTR Type cap
SYMATTR SpiceLine V=16 Irms=35m Rser=2.8 Lser=0 mfg="Nichicon" pn="UPR1C100MAH" type="Al electrolytic"
SYMBOL MiniSyms4\\voltage- 272 -640 R270
WINDOW 0 10 0 VTop 2
WINDOW 3 -10 0 VBottom 2
WINDOW 123 0 0 Left 0
WINDOW 39 0 0 Left 0
SYMATTR InstName V2
SYMATTR Value 12
SYMBOL res -288 -528 R0
SYMATTR InstName R4
SYMATTR Value 10k
SYMBOL res -288 -336 R0
SYMATTR InstName R5
SYMATTR Value 50k
SYMBOL polcap -288 16 R0
WINDOW 3 24 56 Left 2
SYMATTR Value 0.05µ
SYMATTR InstName C3
SYMATTR Description Capacitor
SYMATTR Type cap
SYMATTR SpiceLine V=16 Irms=35m Rser=2.8 Lser=0
SYMBOL polcap 608 -384 R0
WINDOW 3 24 56 Left 2
SYMATTR Value 100µ
SYMATTR InstName C5
SYMATTR Description Capacitor
SYMATTR Type cap
SYMATTR SpiceLine V=16 Irms=135m Rser=0.8 Lser=0 mfg="Nichicon" pn="UPR1C101MPH" type="Al electrolytic"
SYMBOL res -800 -304 R0
SYMATTR InstName R3
SYMATTR Value 220
SYMBOL OptoElec\\Pc357nt -592 -112 R0
SYMATTR InstName U3
TEXT -1560 216 Left 2 !.tran 100ms
